! Program Version,EnergyPlus, Version 23.2.0-7636e6b3e9, YMD=2024.03.23 23:55,
! Output:Meter Objects (applicable to this run)
Output:Meter,EnergyTransfer:Facility,hourly; !- [J]
Output:Meter:Cumulative,EnergyTransfer:Facility,hourly; !- [J]
Output:Meter,EnergyTransfer:Building,hourly; !- [J]
Output:Meter:Cumulative,EnergyTransfer:Building,hourly; !- [J]
Output:Meter,EnergyTransfer:Zone:TEST1 1,hourly; !- [J]
Output:Meter:Cumulative,EnergyTransfer:Zone:TEST1 1,hourly; !- [J]
Output:Meter,Heating:EnergyTransfer,hourly; !- [J]
Output:Meter:Cumulative,Heating:EnergyTransfer,hourly; !- [J]
Output:Meter,Heating:EnergyTransfer:Zone:TEST1 1,hourly; !- [J]
Output:Meter:Cumulative,Heating:EnergyTransfer:Zone:TEST1 1,hourly; !- [J]
Output:Meter,General:Heating:EnergyTransfer,hourly; !- [J]
Output:Meter:Cumulative,General:Heating:EnergyTransfer,hourly; !- [J]
Output:Meter,General:Heating:EnergyTransfer:Zone:TEST1 1,hourly; !- [J]
Output:Meter:Cumulative,General:Heating:EnergyTransfer:Zone:TEST1 1,hourly; !- [J]
Output:Meter,Cooling:EnergyTransfer,hourly; !- [J]
Output:Meter:Cumulative,Cooling:EnergyTransfer,hourly; !- [J]
Output:Meter,Cooling:EnergyTransfer:Zone:TEST1 1,hourly; !- [J]
Output:Meter:Cumulative,Cooling:EnergyTransfer:Zone:TEST1 1,hourly; !- [J]
Output:Meter,General:Cooling:EnergyTransfer,hourly; !- [J]
Output:Meter:Cumulative,General:Cooling:EnergyTransfer,hourly; !- [J]
Output:Meter,General:Cooling:EnergyTransfer:Zone:TEST1 1,hourly; !- [J]
Output:Meter:Cumulative,General:Cooling:EnergyTransfer:Zone:TEST1 1,hourly; !- [J]
Output:Meter,ElectricityProduced:Facility,hourly; !- [J]
Output:Meter:Cumulative,ElectricityProduced:Facility,hourly; !- [J]
Output:Meter,ElectricityProduced:Plant,hourly; !- [J]
Output:Meter:Cumulative,ElectricityProduced:Plant,hourly; !- [J]
Output:Meter,Photovoltaic:ElectricityProduced,hourly; !- [J]
Output:Meter:Cumulative,Photovoltaic:ElectricityProduced,hourly; !- [J]
Output:Meter,PowerConversion:ElectricityProduced,hourly; !- [J]
Output:Meter:Cumulative,PowerConversion:ElectricityProduced,hourly; !- [J]
Output:Meter,Electricity:Facility,hourly; !- [J]
Output:Meter:Cumulative,Electricity:Facility,hourly; !- [J]
Output:Meter,Electricity:Plant,hourly; !- [J]
Output:Meter:Cumulative,Electricity:Plant,hourly; !- [J]
Output:Meter,Cogeneration:Electricity,hourly; !- [J]
Output:Meter:Cumulative,Cogeneration:Electricity,hourly; !- [J]
Output:Meter,DCtoACInverter Ancillary:Cogeneration:Electricity,hourly; !- [J]
Output:Meter:Cumulative,DCtoACInverter Ancillary:Cogeneration:Electricity,hourly; !- [J]
Output:Meter,ElectricityPurchased:Facility,hourly; !- [J]
Output:Meter:Cumulative,ElectricityPurchased:Facility,hourly; !- [J]
Output:Meter,ElectricityPurchased:Plant,hourly; !- [J]
Output:Meter:Cumulative,ElectricityPurchased:Plant,hourly; !- [J]
Output:Meter,Cogeneration:ElectricityPurchased,hourly; !- [J]
Output:Meter:Cumulative,Cogeneration:ElectricityPurchased,hourly; !- [J]
Output:Meter,General:Cogeneration:ElectricityPurchased,hourly; !- [J]
Output:Meter:Cumulative,General:Cogeneration:ElectricityPurchased,hourly; !- [J]
Output:Meter,ElectricitySurplusSold:Facility,hourly; !- [J]
Output:Meter:Cumulative,ElectricitySurplusSold:Facility,hourly; !- [J]
Output:Meter,ElectricitySurplusSold:Plant,hourly; !- [J]
Output:Meter:Cumulative,ElectricitySurplusSold:Plant,hourly; !- [J]
Output:Meter,Cogeneration:ElectricitySurplusSold,hourly; !- [J]
Output:Meter:Cumulative,Cogeneration:ElectricitySurplusSold,hourly; !- [J]
Output:Meter,General:Cogeneration:ElectricitySurplusSold,hourly; !- [J]
Output:Meter:Cumulative,General:Cogeneration:ElectricitySurplusSold,hourly; !- [J]
Output:Meter,ElectricityNet:Facility,hourly; !- [J]
Output:Meter:Cumulative,ElectricityNet:Facility,hourly; !- [J]
Output:Meter,ElectricityNet:Plant,hourly; !- [J]
Output:Meter:Cumulative,ElectricityNet:Plant,hourly; !- [J]
Output:Meter,Cogeneration:ElectricityNet,hourly; !- [J]
Output:Meter:Cumulative,Cogeneration:ElectricityNet,hourly; !- [J]
Output:Meter,General:Cogeneration:ElectricityNet,hourly; !- [J]
Output:Meter:Cumulative,General:Cogeneration:ElectricityNet,hourly; !- [J]
Output:Meter,Carbon Equivalent:Facility,hourly; !- [kg]
Output:Meter:Cumulative,Carbon Equivalent:Facility,hourly; !- [kg]
Output:Meter,CarbonEquivalentEmissions:Carbon Equivalent,hourly; !- [kg]
Output:Meter:Cumulative,CarbonEquivalentEmissions:Carbon Equivalent,hourly; !- [kg]
